
     RDKit          3D

 54 58  0  0  0  0  0  0  0  0999 V2000
   -3.1464   -1.4546    3.1197 C   0  0  0  0  0  0  0  0  0  0  0  0
   -3.3670   -2.5550    2.0984 C   0  0  0  0  0  0  0  0  0  0  0  0
   -3.7438   -1.9079    0.7946 C   0  0  0  0  0  0  0  0  0  0  0  0
   -4.6942   -2.5239   -0.0347 C   0  0  0  0  0  0  0  0  0  0  0  0
   -5.0968   -1.9126   -1.2179 C   0  0  0  0  0  0  0  0  0  0  0  0
   -4.5668   -0.6763   -1.5672 C   0  0  0  0  0  0  0  0  0  0  0  0
   -3.6051   -0.0703   -0.7535 C   0  0  0  0  0  0  0  0  0  0  0  0
   -3.1376   -0.6979    0.4065 C   0  0  0  0  0  0  0  0  0  0  0  0
   -2.1325   -0.1104    1.2341 N   0  0  0  0  0  0  0  0  0  0  0  0
   -2.0437   -0.5269    2.6357 C   0  0  0  0  0  0  0  0  0  0  0  0
   -1.0670    0.6917    0.8048 C   0  0  0  0  0  0  0  0  0  0  0  0
   -0.4128    1.3659    1.6190 O   0  0  0  0  0  0  0  0  0  0  0  0
   -0.5842    0.6198   -0.6723 C   0  0  0  0  0  0  0  0  0  0  0  0
   -0.9007    1.8517   -1.5094 C   0  0  0  0  0  0  0  0  0  0  0  0
   -1.0459    1.7013   -2.9007 C   0  0  0  0  0  0  0  0  0  0  0  0
   -1.3183    2.8007   -3.7160 C   0  0  0  0  0  0  0  0  0  0  0  0
   -1.4377    4.0695   -3.1561 C   0  0  0  0  0  0  0  0  0  0  0  0
   -1.2777    4.2400   -1.7832 C   0  0  0  0  0  0  0  0  0  0  0  0
   -1.0043    3.1413   -0.9648 C   0  0  0  0  0  0  0  0  0  0  0  0
    0.8742    0.4867   -0.6157 N   0  0  0  0  0  0  0  0  0  0  0  0
    1.4385   -0.7531   -0.4135 C   0  0  0  0  0  0  0  0  0  0  0  0
    0.7711   -1.7819   -0.4026 O   0  0  0  0  0  0  0  0  0  0  0  0
    2.8670   -0.7320   -0.1890 C   0  0  0  0  0  0  0  0  0  0  0  0
    3.6601   -1.7411    0.3315 C   0  0  0  0  0  0  0  0  0  0  0  0
    5.0058   -1.2889    0.3682 C   0  0  0  0  0  0  0  0  0  0  0  0
    6.2207   -1.8572    0.7954 C   0  0  0  0  0  0  0  0  0  0  0  0
    7.4009   -1.1131    0.6828 C   0  0  0  0  0  0  0  0  0  0  0  0
    7.3808    0.1751    0.1518 C   0  0  0  0  0  0  0  0  0  0  0  0
    6.1860    0.7579   -0.2819 C   0  0  0  0  0  0  0  0  0  0  0  0
    5.0155    0.0004   -0.1581 C   0  0  0  0  0  0  0  0  0  0  0  0
    3.7186    0.3054   -0.4998 N   0  0  0  0  0  0  0  0  0  0  0  0
   -2.8782   -1.8806    4.0926 H   0  0  0  0  0  0  0  0  0  0  0  0
   -4.0728   -0.8825    3.2622 H   0  0  0  0  0  0  0  0  0  0  0  0
   -4.1667   -3.2166    2.4501 H   0  0  0  0  0  0  0  0  0  0  0  0
   -2.4627   -3.1594    1.9607 H   0  0  0  0  0  0  0  0  0  0  0  0
   -5.1357   -3.4768    0.2485 H   0  0  0  0  0  0  0  0  0  0  0  0
   -5.8411   -2.3872   -1.8516 H   0  0  0  0  0  0  0  0  0  0  0  0
   -4.9096   -0.1719   -2.4671 H   0  0  0  0  0  0  0  0  0  0  0  0
   -3.2809    0.9268   -1.0262 H   0  0  0  0  0  0  0  0  0  0  0  0
   -2.0277    0.3726    3.2636 H   0  0  0  0  0  0  0  0  0  0  0  0
   -1.0701   -1.0191    2.7659 H   0  0  0  0  0  0  0  0  0  0  0  0
   -0.9844   -0.2786   -1.1516 H   0  0  0  0  0  0  0  0  0  0  0  0
   -0.9457    0.7177   -3.3575 H   0  0  0  0  0  0  0  0  0  0  0  0
   -1.4330    2.6664   -4.7885 H   0  0  0  0  0  0  0  0  0  0  0  0
   -1.6489    4.9268   -3.7899 H   0  0  0  0  0  0  0  0  0  0  0  0
   -1.3622    5.2322   -1.3464 H   0  0  0  0  0  0  0  0  0  0  0  0
   -0.8736    3.3151    0.1015 H   0  0  0  0  0  0  0  0  0  0  0  0
    1.3360    1.2648   -0.1654 H   0  0  0  0  0  0  0  0  0  0  0  0
    3.2951   -2.7072    0.6590 H   0  0  0  0  0  0  0  0  0  0  0  0
    6.2438   -2.8612    1.2084 H   0  0  0  0  0  0  0  0  0  0  0  0
    8.3415   -1.5470    1.0123 H   0  0  0  0  0  0  0  0  0  0  0  0
    8.3092    0.7365    0.0719 H   0  0  0  0  0  0  0  0  0  0  0  0
    6.1750    1.7601   -0.6968 H   0  0  0  0  0  0  0  0  0  0  0  0
    3.4363    1.1652   -0.9476 H   0  0  0  0  0  0  0  0  0  0  0  0
  1  2  1  0
  2  3  1  0
  3  4  2  0
  4  5  1  0
  5  6  2  0
  6  7  1  0
  7  8  2  0
  8  9  1  0
  9 10  1  0
  9 11  1  0
 11 12  2  0
 11 13  1  0
 13 14  1  0
 14 15  2  0
 15 16  1  0
 16 17  2  0
 17 18  1  0
 18 19  2  0
 13 20  1  0
 20 21  1  0
 21 22  2  0
 21 23  1  0
 23 24  2  0
 24 25  1  0
 25 26  2  0
 26 27  1  0
 27 28  2  0
 28 29  1  0
 29 30  2  0
 30 31  1  0
 10  1  1  0
  8  3  1  0
 19 14  1  0
 31 23  1  0
 30 25  1  0
  1 32  1  0
  1 33  1  0
  2 34  1  0
  2 35  1  0
  4 36  1  0
  5 37  1  0
  6 38  1  0
  7 39  1  0
 10 40  1  0
 10 41  1  0
 13 42  1  0
 15 43  1  0
 16 44  1  0
 17 45  1  0
 18 46  1  0
 19 47  1  0
 20 48  1  0
 24 49  1  0
 26 50  1  0
 27 51  1  0
 28 52  1  0
 29 53  1  0
 31 54  1  0
M  END
