
     RDKit          3D

 38 41  0  0  0  0  0  0  0  0999 V2000
    2.4992    1.8012   -0.4816 C   0  0  0  0  0  0  0  0  0  0  0  0
    1.3723    1.7648   -1.5164 C   0  0  0  0  0  0  0  0  0  0  0  0
    1.8216    1.0721   -2.8078 C   0  0  0  0  0  0  0  0  0  0  0  0
    1.3308    1.3271   -3.9073 O   0  0  0  0  0  0  0  0  0  0  0  0
    2.6790    0.0089   -2.6720 N   0  0  0  0  0  0  0  0  0  0  0  0
    3.2861   -0.3652   -1.4706 C   0  0  0  0  0  0  0  0  0  0  0  0
    4.0053   -1.5579   -1.4060 C   0  0  0  0  0  0  0  0  0  0  0  0
    4.6099   -1.9359   -0.2066 C   0  0  0  0  0  0  0  0  0  0  0  0
    4.5055   -1.1168    0.9176 C   0  0  0  0  0  0  0  0  0  0  0  0
    3.8017    0.0860    0.8452 C   0  0  0  0  0  0  0  0  0  0  0  0
    3.1820    0.4657   -0.3505 C   0  0  0  0  0  0  0  0  0  0  0  0
    0.1805    1.0764   -1.0232 N   0  0  0  0  0  0  0  0  0  0  0  0
   -0.6905    1.6755   -0.1504 C   0  0  0  0  0  0  0  0  0  0  0  0
   -0.5345    2.8274    0.2445 O   0  0  0  0  0  0  0  0  0  0  0  0
   -1.7945    0.8538    0.2896 C   0  0  0  0  0  0  0  0  0  0  0  0
   -2.1786   -0.4426   -0.0108 C   0  0  0  0  0  0  0  0  0  0  0  0
   -3.3598   -0.7446    0.7243 C   0  0  0  0  0  0  0  0  0  0  0  0
   -4.1875   -1.8792    0.8257 C   0  0  0  0  0  0  0  0  0  0  0  0
   -5.3054   -1.8373    1.6673 C   0  0  0  0  0  0  0  0  0  0  0  0
   -5.6018   -0.6888    2.3987 C   0  0  0  0  0  0  0  0  0  0  0  0
   -4.7943    0.4493    2.3125 C   0  0  0  0  0  0  0  0  0  0  0  0
   -3.6811    0.3887    1.4666 C   0  0  0  0  0  0  0  0  0  0  0  0
   -2.7271    1.3354    1.1841 N   0  0  0  0  0  0  0  0  0  0  0  0
    2.1148    2.1255    0.4924 H   0  0  0  0  0  0  0  0  0  0  0  0
    3.2586    2.5288   -0.7955 H   0  0  0  0  0  0  0  0  0  0  0  0
    1.0920    2.7961   -1.7631 H   0  0  0  0  0  0  0  0  0  0  0  0
    2.8553   -0.5215   -3.5159 H   0  0  0  0  0  0  0  0  0  0  0  0
    4.0967   -2.2046   -2.2740 H   0  0  0  0  0  0  0  0  0  0  0  0
    5.1662   -2.8682   -0.1481 H   0  0  0  0  0  0  0  0  0  0  0  0
    4.9828   -1.4103    1.8496 H   0  0  0  0  0  0  0  0  0  0  0  0
    3.7472    0.7270    1.7225 H   0  0  0  0  0  0  0  0  0  0  0  0
    0.0582    0.1027   -1.2607 H   0  0  0  0  0  0  0  0  0  0  0  0
   -1.6770   -1.1203   -0.6879 H   0  0  0  0  0  0  0  0  0  0  0  0
   -3.9648   -2.7779    0.2586 H   0  0  0  0  0  0  0  0  0  0  0  0
   -5.9483   -2.7103    1.7491 H   0  0  0  0  0  0  0  0  0  0  0  0
   -6.4756   -0.6757    3.0464 H   0  0  0  0  0  0  0  0  0  0  0  0
   -5.0281    1.3430    2.8819 H   0  0  0  0  0  0  0  0  0  0  0  0
   -2.6966    2.2692    1.5720 H   0  0  0  0  0  0  0  0  0  0  0  0
  1  2  1  0
  2  3  1  0
  3  4  2  0
  3  5  1  0
  5  6  1  0
  6  7  2  0
  7  8  1  0
  8  9  2  0
  9 10  1  0
 10 11  2  0
  2 12  1  0
 12 13  1  0
 13 14  2  0
 13 15  1  0
 15 16  2  0
 16 17  1  0
 17 18  2  0
 18 19  1  0
 19 20  2  0
 20 21  1  0
 21 22  2  0
 22 23  1  0
 11  1  1  0
 11  6  1  0
 23 15  1  0
 22 17  1  0
  1 24  1  0
  1 25  1  0
  2 26  1  0
  5 27  1  0
  7 28  1  0
  8 29  1  0
  9 30  1  0
 10 31  1  0
 12 32  1  0
 16 33  1  0
 18 34  1  0
 19 35  1  0
 20 36  1  0
 21 37  1  0
 23 38  1  0
M  END
