
     RDKit          3D

 41 44  0  0  0  0  0  0  0  0999 V2000
    5.7170   -0.4020    1.0061 C   0  0  0  0  0  0  0  0  0  0  0  0
    4.8466   -0.3833   -0.2164 C   0  0  0  0  0  0  0  0  0  0  0  0
    3.4891   -0.0116   -0.2220 C   0  0  0  0  0  0  0  0  0  0  0  0
    2.7067   -0.0021   -1.3759 C   0  0  0  0  0  0  0  0  0  0  0  0
    3.2897   -0.3788   -2.5999 C   0  0  0  0  0  0  0  0  0  0  0  0
    4.6350   -0.7529   -2.6279 C   0  0  0  0  0  0  0  0  0  0  0  0
    5.3942   -0.7539   -1.4593 C   0  0  0  0  0  0  0  0  0  0  0  0
    1.4005    0.4236   -1.0010 C   0  0  0  0  0  0  0  0  0  0  0  0
    1.3932    0.6645    0.3614 C   0  0  0  0  0  0  0  0  0  0  0  0
    2.6705    0.3987    0.8053 N   0  0  0  0  0  0  0  0  0  0  0  0
    0.3634    1.1049    1.2739 C   0  0  0  0  0  0  0  0  0  0  0  0
    0.5757    1.2635    2.4727 O   0  0  0  0  0  0  0  0  0  0  0  0
   -0.8705    1.3154    0.7147 N   0  0  0  0  0  0  0  0  0  0  0  0
   -2.0238    1.7128    1.5205 C   0  0  0  0  0  0  0  0  0  0  0  0
   -2.6238    0.5426    2.3032 C   0  0  0  0  0  0  0  0  0  0  0  0
   -3.4151   -0.3787    1.4132 C   0  0  0  0  0  0  0  0  0  0  0  0
   -3.5644   -1.7340    1.7276 C   0  0  0  0  0  0  0  0  0  0  0  0
   -4.3752   -2.5504    0.9382 C   0  0  0  0  0  0  0  0  0  0  0  0
   -5.0547   -2.0147   -0.1559 C   0  0  0  0  0  0  0  0  0  0  0  0
   -4.9207   -0.6615   -0.4683 C   0  0  0  0  0  0  0  0  0  0  0  0
   -4.0946    0.1481    0.3103 C   0  0  0  0  0  0  0  0  0  0  0  0
   -3.9597    1.5020   -0.0070 N   0  0  0  0  0  0  0  0  0  0  0  0
   -3.0593    2.3503    0.5874 C   0  0  0  0  0  0  0  0  0  0  0  0
   -3.0095    3.5308    0.2425 O   0  0  0  0  0  0  0  0  0  0  0  0
    6.5536    0.2930    0.8812 H   0  0  0  0  0  0  0  0  0  0  0  0
    6.1123   -1.4096    1.1701 H   0  0  0  0  0  0  0  0  0  0  0  0
    5.1656   -0.1075    1.9035 H   0  0  0  0  0  0  0  0  0  0  0  0
    2.7038   -0.3790   -3.5139 H   0  0  0  0  0  0  0  0  0  0  0  0
    5.0928   -1.0445   -3.5697 H   0  0  0  0  0  0  0  0  0  0  0  0
    6.4407   -1.0498   -1.5160 H   0  0  0  0  0  0  0  0  0  0  0  0
    0.5651    0.5367   -1.6781 H   0  0  0  0  0  0  0  0  0  0  0  0
    2.9518    0.4988    1.7715 H   0  0  0  0  0  0  0  0  0  0  0  0
   -1.0203    1.0972   -0.2596 H   0  0  0  0  0  0  0  0  0  0  0  0
   -1.6931    2.4768    2.2346 H   0  0  0  0  0  0  0  0  0  0  0  0
   -1.8356   -0.0172    2.8200 H   0  0  0  0  0  0  0  0  0  0  0  0
   -3.3095    0.9293    3.0681 H   0  0  0  0  0  0  0  0  0  0  0  0
   -3.0582   -2.1588    2.5918 H   0  0  0  0  0  0  0  0  0  0  0  0
   -4.4861   -3.6041    1.1835 H   0  0  0  0  0  0  0  0  0  0  0  0
   -5.6919   -2.6526   -0.7635 H   0  0  0  0  0  0  0  0  0  0  0  0
   -5.4574   -0.2576   -1.3220 H   0  0  0  0  0  0  0  0  0  0  0  0
   -4.5437    1.9157   -0.7228 H   0  0  0  0  0  0  0  0  0  0  0  0
  1  2  1  0
  2  3  2  0
  3  4  1  0
  4  5  2  0
  5  6  1  0
  6  7  2  0
  4  8  1  0
  8  9  2  0
  9 10  1  0
  9 11  1  0
 11 12  2  0
 11 13  1  0
 13 14  1  0
 14 15  1  0
 15 16  1  0
 16 17  2  0
 17 18  1  0
 18 19  2  0
 19 20  1  0
 20 21  2  0
 21 22  1  0
 22 23  1  0
 23 24  2  0
  7  2  1  0
 10  3  1  0
 23 14  1  0
 21 16  1  0
  1 25  1  0
  1 26  1  0
  1 27  1  0
  5 28  1  0
  6 29  1  0
  7 30  1  0
  8 31  1  0
 10 32  1  0
 13 33  1  0
 14 34  1  0
 15 35  1  0
 15 36  1  0
 17 37  1  0
 18 38  1  0
 19 39  1  0
 20 40  1  0
 22 41  1  0
M  END
