
     RDKit          3D

 55 58  0  0  0  0  0  0  0  0999 V2000
   -4.7539   -3.2773    0.7892 C   0  0  0  0  0  0  0  0  0  0  0  0
   -3.8746   -2.7108   -0.2320 N   0  0  0  0  0  0  0  0  0  0  0  0
   -2.6039   -3.4688   -0.2691 C   0  0  0  0  0  0  0  0  0  0  0  0
   -1.3948   -2.6709   -0.7828 C   0  0  0  0  0  0  0  0  0  0  0  0
   -1.1659   -1.4760    0.0340 N   0  0  0  0  0  0  0  0  0  0  0  0
   -2.3610   -0.8532    0.6167 C   0  0  0  0  0  0  0  0  0  0  0  0
   -3.6619   -1.2329   -0.1442 C   0  0  0  0  0  0  0  0  0  0  0  0
   -4.8817   -0.4309    0.3817 C   0  0  0  0  0  0  0  0  0  0  0  0
   -4.7822    1.0631    0.1671 C   0  0  0  0  0  0  0  0  0  0  0  0
   -4.5605    1.9265    1.2487 C   0  0  0  0  0  0  0  0  0  0  0  0
   -4.4597    3.3036    1.0448 C   0  0  0  0  0  0  0  0  0  0  0  0
   -4.5828    3.8310   -0.2391 C   0  0  0  0  0  0  0  0  0  0  0  0
   -4.8085    2.9823   -1.3208 C   0  0  0  0  0  0  0  0  0  0  0  0
   -4.9088    1.6050   -1.1197 C   0  0  0  0  0  0  0  0  0  0  0  0
    0.0712   -0.8994    0.2643 C   0  0  0  0  0  0  0  0  0  0  0  0
    0.2195    0.0737    1.0115 O   0  0  0  0  0  0  0  0  0  0  0  0
    1.2817   -1.5262   -0.4327 C   0  0  0  0  0  0  0  0  0  0  0  0
    2.4374   -0.6731   -0.2352 N   0  0  0  0  0  0  0  0  0  0  0  0
    3.6660   -1.0239   -0.7372 C   0  0  0  0  0  0  0  0  0  0  0  0
    3.8163   -2.0366   -1.4148 O   0  0  0  0  0  0  0  0  0  0  0  0
    4.7492   -0.1301   -0.3903 C   0  0  0  0  0  0  0  0  0  0  0  0
    6.1090   -0.3586   -0.5293 C   0  0  0  0  0  0  0  0  0  0  0  0
    6.8137    0.7861   -0.0718 C   0  0  0  0  0  0  0  0  0  0  0  0
    8.1765    1.1221    0.0354 C   0  0  0  0  0  0  0  0  0  0  0  0
    8.5335    2.3775    0.5411 C   0  0  0  0  0  0  0  0  0  0  0  0
    7.5560    3.2897    0.9338 C   0  0  0  0  0  0  0  0  0  0  0  0
    6.1965    2.9776    0.8342 C   0  0  0  0  0  0  0  0  0  0  0  0
    5.8586    1.7167    0.3290 C   0  0  0  0  0  0  0  0  0  0  0  0
    4.6252    1.1459    0.1154 N   0  0  0  0  0  0  0  0  0  0  0  0
   -5.7753   -2.8962    0.6950 H   0  0  0  0  0  0  0  0  0  0  0  0
   -4.8327   -4.3644    0.6684 H   0  0  0  0  0  0  0  0  0  0  0  0
   -4.3915   -3.0726    1.8027 H   0  0  0  0  0  0  0  0  0  0  0  0
   -2.3487   -3.8246    0.7391 H   0  0  0  0  0  0  0  0  0  0  0  0
   -2.7442   -4.3557   -0.8976 H   0  0  0  0  0  0  0  0  0  0  0  0
   -0.5081   -3.3107   -0.7758 H   0  0  0  0  0  0  0  0  0  0  0  0
   -1.5575   -2.3386   -1.8147 H   0  0  0  0  0  0  0  0  0  0  0  0
   -2.2113    0.2312    0.6200 H   0  0  0  0  0  0  0  0  0  0  0  0
   -2.4194   -1.1804    1.6622 H   0  0  0  0  0  0  0  0  0  0  0  0
   -3.5083   -0.9198   -1.1871 H   0  0  0  0  0  0  0  0  0  0  0  0
   -5.7945   -0.7646   -0.1300 H   0  0  0  0  0  0  0  0  0  0  0  0
   -5.0360   -0.6350    1.4490 H   0  0  0  0  0  0  0  0  0  0  0  0
   -4.4600    1.5346    2.2583 H   0  0  0  0  0  0  0  0  0  0  0  0
   -4.2840    3.9657    1.8887 H   0  0  0  0  0  0  0  0  0  0  0  0
   -4.5041    4.9034   -0.3963 H   0  0  0  0  0  0  0  0  0  0  0  0
   -4.9076    3.3934   -2.3221 H   0  0  0  0  0  0  0  0  0  0  0  0
   -5.0897    0.9567   -1.9745 H   0  0  0  0  0  0  0  0  0  0  0  0
    1.1027   -1.6225   -1.5075 H   0  0  0  0  0  0  0  0  0  0  0  0
    1.4960   -2.5039    0.0094 H   0  0  0  0  0  0  0  0  0  0  0  0
    2.3501    0.0128    0.5038 H   0  0  0  0  0  0  0  0  0  0  0  0
    6.5446   -1.2703   -0.9197 H   0  0  0  0  0  0  0  0  0  0  0  0
    8.9432    0.4169   -0.2711 H   0  0  0  0  0  0  0  0  0  0  0  0
    9.5847    2.6417    0.6260 H   0  0  0  0  0  0  0  0  0  0  0  0
    7.8542    4.2607    1.3228 H   0  0  0  0  0  0  0  0  0  0  0  0
    5.4383    3.6913    1.1391 H   0  0  0  0  0  0  0  0  0  0  0  0
    3.7491    1.6187    0.2835 H   0  0  0  0  0  0  0  0  0  0  0  0
  1  2  1  0
  2  3  1  0
  3  4  1  0
  4  5  1  0
  5  6  1  0
  6  7  1  0
  7  8  1  0
  8  9  1  0
  9 10  2  0
 10 11  1  0
 11 12  2  0
 12 13  1  0
 13 14  2  0
  5 15  1  0
 15 16  2  0
 15 17  1  0
 17 18  1  0
 18 19  1  0
 19 20  2  0
 19 21  1  0
 21 22  2  0
 22 23  1  0
 23 24  2  0
 24 25  1  0
 25 26  2  0
 26 27  1  0
 27 28  2  0
 28 29  1  0
  7  2  1  0
 14  9  1  0
 29 21  1  0
 28 23  1  0
  1 30  1  0
  1 31  1  0
  1 32  1  0
  3 33  1  0
  3 34  1  0
  4 35  1  0
  4 36  1  0
  6 37  1  0
  6 38  1  0
  7 39  1  0
  8 40  1  0
  8 41  1  0
 10 42  1  0
 11 43  1  0
 12 44  1  0
 13 45  1  0
 14 46  1  0
 17 47  1  0
 17 48  1  0
 18 49  1  0
 22 50  1  0
 24 51  1  0
 25 52  1  0
 26 53  1  0
 27 54  1  0
 29 55  1  0
M  END
